/*--------------------------------*- C++ -*----------------------------------*\
| =========                 |                                                 |
| \\      /  F ield         | OpenFOAM: The Open Source CFD Toolbox           |
|  \\    /   O peration     | Version:  5                                     |
|   \\  /    A nd           | Web:      www.OpenFOAM.org                      |
|    \\/     M anipulation  |                                                 |
\*---------------------------------------------------------------------------*/
FoamFile
{
    version     2.0;
    format      ascii;
    class       volScalarField;
    object      k;
}
// * * * * * * * * * * * * * * * * * * * * * * * * * * * * * * * * * * * * * //

kInlet          INLETK;

dimensions      [0 2 -2 0 0 0 0];

internalField   uniform $kInlet;

boundaryField
{
    west_face
    {
        type            atmBoundaryLayerInletK;
        #include        "include/ABLConditions"
    }
    
    east_face
    {
        type            inletOutlet;
        inletValue      $internalField;
        value           $internalField;
    }

    "(north_face|south_face|maxZ)"
    {
        type            slip;
    }

    "(hill_geometry|minZ)"
    {
        type            kqRWallFunction;
        value           uniform 0.0;
    }
}


// ************************************************************************* //
