/*--------------------------------*- C++ -*----------------------------------*\
| =========                 |                                                 |
| \\      /  F ield         | OpenFOAM: The Open Source CFD Toolbox           |
|  \\    /   O peration     | Version:  5                                     |
|   \\  /    A nd           | Web:      www.OpenFOAM.org                      |
|    \\/     M anipulation  |                                                 |
\*---------------------------------------------------------------------------*/
FoamFile
{
    version     2.0;
    format      ascii;
    class       volScalarField;
    object      p;
}
// * * * * * * * * * * * * * * * * * * * * * * * * * * * * * * * * * * * * * //

dimensions      [0 2 -2 0 0 0 0];

internalField   uniform 0;

boundaryField
{
    west_face
    {
        type            zeroGradient;
    }

    east_face
    {
        type            uniformFixedValue;
        uniformValue    constant 0;
    }

    "(north_face|south_face|maxZ)"
    {
        type            slip;
    }
    
    "(hill_geometry|minZ)"
    {
        type            zeroGradient;
    }

}

// ************************************************************************* //
