/*--------------------------------*- C++ -*----------------------------------*\
| =========                 |                                                 |
| \\      /  F ield         | OpenFOAM: The Open Source CFD Toolbox           |
|  \\    /   O peration     | Version:  5                                     |
|   \\  /    A nd           | Web:      www.OpenFOAM.org                      |
|    \\/     M anipulation  |                                                 |
\*---------------------------------------------------------------------------*/
FoamFile
{
    version     2.0;
    format      ascii;
    class       volVectorField;
    location    "0";
    object      U;
}
// * * * * * * * * * * * * * * * * * * * * * * * * * * * * * * * * * * * * * //

dimensions      [0 1 -1 0 0 0 0];

internalField   uniform (0 0 0);

boundaryField
{
    west_face
    {
        type            atmBoundaryLayerInletVelocity;
        #include        "include/ABLConditions"
    }

    east_face
    {
        type            inletOutlet;
        inletValue      $internalField;
        value           $internalField;
    }
    
    "(north_face|south_face|maxZ)"
    {
        type            slip;
    }
        

    "(hill_geometry|minZ)"
    {
        type            uniformFixedValue;
        uniformValue    (0 0 0);
        value           uniform (0 0 0);
    }

}


// ************************************************************************* //
